Circuit: * AD8056 SPICE model

Fatal Error: No analysis request found.
