Circuit: * C:\Users\usuario\Desktop\Mesotreat - PIC32MX564F128H v1.0.300\sims\20171128\level_dacdds.asc

Direct Newton iteration for .op point succeeded.
